
 OpenBabel06191914412D

 22 24  0  0  0  0  0  0  0  0999 V2000
    7.6651    2.0032    0.0000 S   0  0  0  0  0  0  0  0  0  0  0  0
    5.9405    0.8252    0.0000 O   0  0  0  0  0  0  0  0  0  0  0  0
    3.4025    1.3296    0.0000 O   0  0  0  0  0  0  0  0  0  0  0  0
    4.6844    3.0874    0.0000 O   0  0  0  0  0  0  0  0  0  0  0  0
    4.6783   -0.4327    0.0000 N   0  0  0  0  0  0  0  0  0  0  0  0
    2.8660   -0.2375    0.0000 N   0  0  0  0  0  0  0  0  0  0  0  0
    2.0000   -1.7375    0.0000 N   0  0  0  0  0  0  0  0  0  0  0  0
    2.8660   -3.2375    0.0000 N   0  0  0  0  0  0  0  0  0  0  0  0
    4.9889    0.5178    0.0000 C   0  0  1  0  0  0  0  0  0  0  0  0
    4.4025    1.3278    0.0000 C   0  0  1  0  0  0  0  0  0  0  0  0
    4.9917    2.1358    0.0000 C   0  0  1  0  0  0  0  0  0  0  0  0
    5.9423    1.8252    0.0000 C   0  0  1  0  0  0  0  0  0  0  0  0
    6.7523    2.4116    0.0000 C   0  0  0  0  0  0  0  0  0  0  0  0
    3.7321   -0.7375    0.0000 C   0  0  0  0  0  0  0  0  0  0  0  0
    5.2619   -1.2375    0.0000 C   0  0  0  0  0  0  0  0  0  0  0  0
    3.7321   -1.7375    0.0000 C   0  0  0  0  0  0  0  0  0  0  0  0
    4.6783   -2.0422    0.0000 C   0  0  0  0  0  0  0  0  0  0  0  0
    2.8660   -2.2375    0.0000 C   0  0  0  0  0  0  0  0  0  0  0  0
    8.4752    2.5896    0.0000 C   0  0  0  0  0  0  0  0  0  0  0  0
    2.0000   -0.7375    0.0000 C   0  0  0  0  0  0  0  0  0  0  0  0
    2.3291   -3.5475    0.0000 H   0  0  0  0  0  0  0  0  0  0  0  0
    3.4030   -3.5475    0.0000 H   0  0  0  0  0  0  0  0  0  0  0  0
  1 13  1  0  0  0  0
  1 19  1  0  0  0  0
  2  9  1  0  0  0  0
  2 12  1  0  0  0  0
  5 14  1  0  0  0  0
  5 15  1  0  0  0  0
  6 14  2  0  0  0  0
  6 20  1  0  0  0  0
  7 18  1  0  0  0  0
  7 20  2  0  0  0  0
  8 18  1  0  0  0  0
  8 21  1  0  0  0  0
  8 22  1  0  0  0  0
  9  5  1  1  0  0  0
  9 10  1  0  0  0  0
 10  3  1  6  0  0  0
 10 11  1  0  0  0  0
 11  4  1  6  0  0  0
 11 12  1  0  0  0  0
 12 13  1  1  0  0  0
 14 16  1  0  0  0  0
 15 17  2  0  0  0  0
 16 17  1  0  0  0  0
 16 18  2  0  0  0  0
M  END
>  <PUBCHEM_BONDANNOTATIONS>
12  13  5
14  16  8
15  17  8
16  17  8
16  18  8
10  3  6
11  4  6
5  14  8
5  15  8
9  5  5
6  14  8
6  20  8
7  18  8
7  20  8

>  <StdInChI>
InChI=1S/C12H16N4O3S/c1-20-4-7-8(17)9(18)12(19-7)16-3-2-6-10(13)14-5-15-11(6)16/h2-3,5,7-9,12,17-18H,4H2,1H3,(H2,13,14,15)/t7-,8-,9-,12-/m1/s1

>  <StdInChIKey>
WBPLMFVTQMIPLW-MFYTUXHUSA-N

>  <AuxInfo>
1/1/N:19,17,15,13,20,16,12,11,10,18,14,9,8,7,6,5,4,3,2,1/it:im/rA:36cSOOONNNNCCCCCCCCCCCCHHHHHHHHHHHHHHHH/rB:;;;;;;;s2p5;n3s9;n4s10;s2s11;s1P12;s5d6;s5;s14;d15s16;s7s8d16;s1;s6d7;s9;s10;s11;s12;s13;s13;s15;s3;s4;s17;s19;s19;s19;s20;s8;s8;/rC:7.6651,2.0032,0;5.9405,.8252,0;3.4025,1.3296,0;4.6844,3.0874,0;4.6783,-.4327,0;2.866,-.2375,0;2,-1.7375,0;2.866,-3.2375,0;4.9889,.5178,0;4.4025,1.3278,0;4.9917,2.1358,0;5.9423,1.8252,0;6.7523,2.4116,0;3.7321,-.7375,0;5.2619,-1.2375,0;3.7321,-1.7375,0;4.6783,-2.0422,0;2.866,-2.2375,0;8.4752,2.5896,0;2,-.7375,0;5.4266,.0786,0;4.122,1.8807,0;5.4309,2.5735,0;6.4942,1.5427,0;7.0999,2.925,0;6.307,2.843,0;5.8819,-1.2375,0;3.0935,1.867,0;5.1,3.5475,0;4.8709,-2.6315,0;8.9774,2.9532,0;8.1116,3.0918,0;8.8387,2.0874,0;1.4631,-.4275,0;2.3291,-3.5475,0;3.403,-3.5475,0;

>  <Formula>
C12 H16 N4 O3 S

>  <Mw>
296.3454

>  <SMILES>
S(C([H])([H])[H])C([H])([H])[C@]1([H])[C@]([H])([C@]([H])([C@]([H])(N2C([H])=C([H])C3=C(N([H])[H])N=C([H])N=C23)O1)O[H])O[H]

>  <CSID>
163705

$$$$
