


 18 19  0  0000  0  0  0  0  0999 V2000
    5.1350   -2.0121    0.0000 O   0  0  0  0  0  0  0  0  0  0  0
    2.5369   -0.5121    0.0000 O   0  0  0  0  0  0  0  0  0  0  0
    9.5331    0.5154    0.0000 O   0  0  0  0  0  0  0  0  0  0  0
    3.4030   -2.0121    0.0000 O   0  0  0  0  0  0  0  0  0  0  0
    8.6613    2.0121    0.0000 O   0  0  0  0  0  0  0  0  0  0  0
    5.1350    0.9879    0.0000 N   0  0  0  0  0  0  0  0  0  0  0
    6.0010   -0.5121    0.0000 C   0  0  0  0  0  0  0  0  0  0  0
    6.0010    0.4879    0.0000 C   0  0  0  0  0  0  0  0  0  0  0
    5.1350   -1.0121    0.0000 C   0  0  0  0  0  0  0  0  0  0  0
    6.8950    1.0226    0.0000 C   0  0  0  0  0  0  0  0  0  0  0
    6.8950   -1.0467    0.0000 C   0  0  0  0  0  0  0  0  0  0  0
    4.2690   -0.5121    0.0000 C   0  0  0  0  0  0  0  0  0  0  0
    7.8010    0.5087    0.0000 C   0  0  0  0  0  0  0  0  0  0  0
    4.2690    0.4879    0.0000 C   0  0  0  0  0  0  0  0  0  0  0
    7.8010   -0.5329    0.0000 C   0  0  0  0  0  0  0  0  0  0  0
    3.4030   -1.0121    0.0000 C   0  0  0  0  0  0  0  0  0  0  0
    8.6651    1.0121    0.0000 C   0  0  0  0  0  0  0  0  0  0  0
    5.1350    1.6079    0.0000 H   0  0  0  0  0  0  0  0  0  0  0
  1  9  2  0
  2 16  1  0
  3 17  1  0
  4 16  2  0
  5 17  2  0
  6  8  1  0
  6 14  1  0
  6 18  1  0
  7  8  2  0
  7  9  1  0
  7 11  1  0
  8 10  1  0
  9 12  1  0
 10 13  2  0
 11 15  2  0
 12 14  2  0
 12 16  1  0
 13 15  1  0
 13 17  1  0
M  END

> <PUBCHEM_BONDANNOTATIONS>
10  13  8
11  15  8
12  14  8
13  15  8
6  14  8
6  8  8
7  11  8
7  8  8
7  9  8
8  10  8
9  12  8

> <StdInChI>
InChI=1S/C11H7NO5/c13-9-6-2-1-5(10(14)15)3-8(6)12-4-7(9)11(16)17/h1-4H,(H,12,13)(H,14,15)(H,16,17)

> <StdInChIKey>
QLHSVJRXHWXBHT-UHFFFAOYSA-N

> <AuxInfo>
1/1/N:15,11,10,14,13,7,12,8,9,17,16,6,1,3,5,2,4/E:(14,15)(16,17)/rA:24nOOOOONCCCCCCCCCCCHHHHHHH/rB:;;;;;;s6d7;d1s7;s8;s7;s9;d10;s6d12;d11s13;s2d4s12;s3d5s13;s10;s6;s11;s14;s15;s2;s3;/rC:5.135,-2.0121,0;2.5369,-.5121,0;9.5331,.5154,0;3.403,-2.0121,0;8.6613,2.0121,0;5.135,.9879,0;6.001,-.5121,0;6.001,.4879,0;5.135,-1.0121,0;6.895,1.0226,0;6.895,-1.0467,0;4.269,-.5121,0;7.801,.5087,0;4.269,.4879,0;7.801,-.5329,0;3.403,-1.0121,0;8.6651,1.0121,0;6.8878,1.6425,0;5.135,1.6079,0;6.8878,-1.6667,0;3.7321,.7979,0;8.3368,-.845,0;2,-.8221,0;10.0688,.8275,0;

> <Formula>
C11 H7 N O5

> <Mw>
233.177

> <SMILES>
O=C1C(C(=O)O[H])=C([H])N([H])C2C([H])=C(C(=O)O[H])C([H])=C([H])C=21

> <CSID>
290967

$$$$
