


 48 47  0  0000  0  0  0  0  0999 V2000
   20.1865   -0.2500    0.0000 O   0  0  0  0  0  0  0  0  0  0  0
   17.5885    0.2500    0.0000 O   0  0  0  0  0  0  0  0  0  0  0
   21.9186   -1.2500    0.0000 O   0  0  0  0  0  0  0  0  0  0  0
   15.8564    1.2500    0.0000 O   0  0  0  0  0  0  0  0  0  0  0
   34.0429   -0.2500    0.0000 O   0  0  0  0  0  0  0  0  0  0  0
    3.7321    0.2500    0.0000 O   0  0  0  0  0  0  0  0  0  0  0
   33.1769    1.2500    0.0000 O   0  0  0  0  0  0  0  0  0  0  0
    4.5981   -1.2500    0.0000 O   0  0  0  0  0  0  0  0  0  0  0
   22.7846    0.2500    0.0000 N   0  0  0  0  0  0  0  0  0  0  0
   14.9904   -0.2500    0.0000 N   0  0  0  0  0  0  0  0  0  0  0
   27.1147   -0.2500    0.0000 C   0  0  0  0  0  0  0  0  0  0  0
   10.6603    0.2500    0.0000 C   0  0  0  0  0  0  0  0  0  0  0
   27.9808    0.2500    0.0000 C   0  0  0  0  0  0  0  0  0  0  0
    9.7942   -0.2500    0.0000 C   0  0  0  0  0  0  0  0  0  0  0
   26.2487    0.2500    0.0000 C   0  0  0  0  0  0  0  0  0  0  0
   11.5263   -0.2500    0.0000 C   0  0  0  0  0  0  0  0  0  0  0
   28.8468   -0.2500    0.0000 C   0  0  0  0  0  0  0  0  0  0  0
    8.9282    0.2500    0.0000 C   0  0  0  0  0  0  0  0  0  0  0
   25.3827   -0.2500    0.0000 C   0  0  0  0  0  0  0  0  0  0  0
   12.3923    0.2500    0.0000 C   0  0  0  0  0  0  0  0  0  0  0
   29.7128    0.2500    0.0000 C   0  0  0  0  0  0  0  0  0  0  0
    8.0622   -0.2500    0.0000 C   0  0  0  0  0  0  0  0  0  0  0
   24.5167    0.2500    0.0000 C   0  0  0  0  0  0  0  0  0  0  0
   13.2583   -0.2500    0.0000 C   0  0  0  0  0  0  0  0  0  0  0
   30.5788   -0.2500    0.0000 C   0  0  0  0  0  0  0  0  0  0  0
    7.1962    0.2500    0.0000 C   0  0  0  0  0  0  0  0  0  0  0
   23.6506   -0.2500    0.0000 C   0  0  0  0  0  0  0  0  0  0  0
   14.1244    0.2500    0.0000 C   0  0  0  0  0  0  0  0  0  0  0
   31.4449    0.2500    0.0000 C   0  0  0  0  0  0  0  0  0  0  0
    6.3301   -0.2500    0.0000 C   0  0  0  0  0  0  0  0  0  0  0
   32.3109   -0.2500    0.0000 C   0  0  0  0  0  0  0  0  0  0  0
    5.4641    0.2500    0.0000 C   0  0  0  0  0  0  0  0  0  0  0
   19.3205    0.2500    0.0000 C   0  0  0  0  0  0  0  0  0  0  0
   18.4545   -0.2500    0.0000 C   0  0  0  0  0  0  0  0  0  0  0
   21.9186   -0.2500    0.0000 C   0  0  0  0  0  0  0  0  0  0  0
   15.8564    0.2500    0.0000 C   0  0  0  0  0  0  0  0  0  0  0
   22.7846    1.2500    0.0000 C   0  0  0  0  0  0  0  0  0  0  0
   14.9904   -1.2500    0.0000 C   0  0  0  0  0  0  0  0  0  0  0
   21.0526    0.2500    0.0000 C   0  0  0  0  0  0  0  0  0  0  0
   16.7224   -0.2500    0.0000 C   0  0  0  0  0  0  0  0  0  0  0
   33.1769    0.2500    0.0000 C   0  0  0  0  0  0  0  0  0  0  0
    4.5981   -0.2500    0.0000 C   0  0  0  0  0  0  0  0  0  0  0
   19.3205    1.2500    0.0000 C   0  0  0  0  0  0  0  0  0  0  0
   18.4545   -1.2500    0.0000 C   0  0  0  0  0  0  0  0  0  0  0
   34.9090    0.2500    0.0000 C   0  0  0  0  0  0  0  0  0  0  0
    2.8660   -0.2500    0.0000 C   0  0  0  0  0  0  0  0  0  0  0
   35.7750   -0.2500    0.0000 C   0  0  0  0  0  0  0  0  0  0  0
    2.0000    0.2500    0.0000 C   0  0  0  0  0  0  0  0  0  0  0
  1 33  1  0
  1 39  1  0
  2 34  1  0
  2 40  1  0
  3 35  2  0
  4 36  2  0
  5 41  1  0
  5 45  1  0
  6 42  1  0
  6 46  1  0
  7 41  2  0
  8 42  2  0
  9 27  1  0
  9 35  1  0
  9 37  1  0
 10 28  1  0
 10 36  1  0
 10 38  1  0
 11 13  1  0
 11 15  1  0
 12 14  1  0
 12 16  1  0
 13 17  1  0
 14 18  1  0
 15 19  1  0
 16 20  1  0
 17 21  1  0
 18 22  1  0
 19 23  1  0
 20 24  1  0
 21 25  1  0
 22 26  1  0
 23 27  1  0
 24 28  1  0
 25 29  1  0
 26 30  1  0
 29 31  1  0
 30 32  1  0
 31 41  1  0
 32 42  1  0
 33 34  1  0
 33 43  1  0
 34 44  1  0
 35 39  1  0
 36 40  1  0
 45 47  1  0
 46 48  1  0
M  END

> <PUBCHEM_BONDANNOTATIONS>
33  43  3
34  44  3

> <StdInChI>
InChI=1S/C38H72N2O8/c1-7-45-37(43)27-23-19-15-11-9-13-17-21-25-29-39(5)35(41)31-47-33(3)34(4)48-32-36(42)40(6)30-26-22-18-14-10-12-16-20-24-28-38(44)46-8-2/h33-34H,7-32H2,1-6H3

> <StdInChIKey>
CJAONIOAQZUHPN-UHFFFAOYSA-N

> <AuxInfo>
1/0/N:47,48,43,44,37,38,45,46,13,14,17,18,11,12,21,22,15,16,25,26,19,20,29,30,23,24,31,32,27,28,39,40,33,34,35,36,41,42,9,10,3,4,7,8,5,6,1,2/E:(1,2)(3,4)(5,6)(7,8)(9,10)(11,12)(13,14)(15,16)(17,18)(19,20)(21,22)(23,24)(25,26)(27,28)(29,30)(31,32)(33,34)(35,36)(37,38)(39,40)(41,42)(43,44)(45,46)(47,48)/rA:120cOOOOOOOONNCCCCCCCCCCCCCCCCCCCCCCCCCCCCCCCCCCCCCCHHHHHHHHHHHHHHHHHHHHHHHHHHHHHHHHHHHHHHHHHHHHHHHHHHHHHHHHHHHHHHHHHHHHHHHH/rB:;;;;;;;;;;;s11;s12;s11;s12;s13;s14;s15;s16;s17;s18;s19;s20;s21;s22;s9s23;s10s24;s25;s26;s29;s30;s1;s2s33;d3s9;d4s10;s9;s10;s1s35;s2s36;s5d7s31;s6d8s32;s33;s34;s5;s6;s45;s46;s11;s11;s12;s12;s13;s13;s14;s14;s15;s15;s16;s16;s17;s17;s18;s18;s19;s19;s20;s20;s21;s21;s22;s22;s23;s23;s24;s24;s25;s25;s26;s26;s27;s27;s28;s28;s29;s29;s30;s30;s31;s31;s32;s32;s33;s34;s37;s37;s37;s38;s38;s38;s39;s39;s40;s40;s43;s43;s43;s44;s44;s44;s45;s45;s46;s46;s47;s47;s47;s48;s48;s48;/rC:20.1865,-.25,0;17.5885,.25,0;21.9186,-1.25,0;15.8564,1.25,0;34.0429,-.25,0;3.7321,.25,0;33.1769,1.25,0;4.5981,-1.25,0;22.7846,.25,0;14.9904,-.25,0;27.1147,-.25,0;10.6603,.25,0;27.9808,.25,0;9.7942,-.25,0;26.2487,.25,0;11.5263,-.25,0;28.8468,-.25,0;8.9282,.25,0;25.3827,-.25,0;12.3923,.25,0;29.7128,.25,0;8.0622,-.25,0;24.5167,.25,0;13.2583,-.25,0;30.5788,-.25,0;7.1962,.25,0;23.6506,-.25,0;14.1244,.25,0;31.4449,.25,0;6.3301,-.25,0;32.3109,-.25,0;5.4641,.25,0;19.3205,.25,0;18.4545,-.25,0;21.9186,-.25,0;15.8564,.25,0;22.7846,1.25,0;14.9904,-1.25,0;21.0526,.25,0;16.7224,-.25,0;33.1769,.25,0;4.5981,-.25,0;19.3205,1.25,0;18.4545,-1.25,0;34.909,.25,0;2.866,-.25,0;35.775,-.25,0;2,.25,0;26.7162,-.7249,0;27.5133,-.7249,0;10.2617,.7249,0;11.0588,.7249,0;28.3793,.7249,0;27.5822,.7249,0;10.1928,-.7249,0;9.3957,-.7249,0;26.6472,.7249,0;25.8502,.7249,0;11.9248,-.7249,0;11.1278,-.7249,0;28.4483,-.7249,0;29.2453,-.7249,0;8.5297,.7249,0;9.3267,.7249,0;25.7812,-.7249,0;24.9842,-.7249,0;12.7908,.7249,0;11.9938,.7249,0;30.1113,.7249,0;29.3143,.7249,0;7.6636,-.7249,0;8.4607,-.7249,0;24.9152,.7249,0;24.1181,.7249,0;12.8598,-.7249,0;13.6569,-.7249,0;30.9774,-.7249,0;30.1803,-.7249,0;7.5947,.7249,0;6.7976,.7249,0;23.2521,-.7249,0;24.0492,-.7249,0;13.7258,.7249,0;14.5229,.7249,0;31.0463,.7249,0;31.8434,.7249,0;5.9316,-.7249,0;6.7287,-.7249,0;31.9124,-.7249,0;32.7094,-.7249,0;5.8626,.7249,0;5.0656,.7249,0;19.8574,.56,0;18.4545,.37,0;22.1646,1.25,0;22.7846,1.87,0;23.4046,1.25,0;15.6104,-1.25,0;14.9904,-1.87,0;14.3704,-1.25,0;20.654,.7249,0;21.4511,.7249,0;16.3239,-.7249,0;17.121,-.7249,0;18.7005,1.25,0;19.3205,1.87,0;19.9405,1.25,0;17.8345,-1.25,0;18.4545,-1.87,0;19.0745,-1.25,0;34.5104,.7249,0;35.3075,.7249,0;2.4675,-.7249,0;3.2646,-.7249,0;35.465,-.7869,0;36.3119,-.56,0;36.085,.2869,0;1.69,-.2869,0;1.4631,.56,0;2.31,.7869,0;

> <Formula>
C38 H72 N2 O8

> <Mw>
684.9869

> <SMILES>
O(C([H])([H])C(N(C([H])([H])[H])C([H])([H])C([H])([H])C([H])([H])C([H])([H])C([H])([H])C([H])([H])C([H])([H])C([H])([H])C([H])([H])C([H])([H])C([H])([H])C(=O)OC([H])([H])C([H])([H])[H])=O)C([H])(C([H])([H])[H])C([H])(C([H])([H])[H])OC([H])([H])C(N(C([H])([H])[H])C([H])([H])C([H])([H])C([H])([H])C([H])([H])C([H])([H])C([H])([H])C([H])([H])C([H])([H])C([H])([H])C([H])([H])C([H])([H])C(=O)OC([H])([H])C([H])([H])[H])=O

> <CSID>
2416

$$$$
