


 19 21  0  0001  0  0  0  0  0999 V2000
    6.7485    0.4956    0.0000 O   0  0  0  0  0  0  0  0  0  0  0
    6.7523    2.6711    0.0000 O   0  0  0  0  0  0  0  0  0  0  0
    4.6783   -0.1731    0.0000 N   0  0  0  0  0  0  0  0  0  0  0
    4.6783   -1.7826    0.0000 N   0  0  0  0  0  0  0  0  0  0  0
    2.8660    0.0221    0.0000 N   0  0  0  0  0  0  0  0  0  0  0
    2.0000   -1.4779    0.0000 N   0  0  0  0  0  0  0  0  0  0  0
    2.8660   -2.9779    0.0000 N   0  0  0  0  0  0  0  0  0  0  0
    4.9889    0.7774    0.0000 C   0  0  0  0  0  0  0  0  0  0  0
    5.9405    1.0848    0.0000 C   0  0  0  0  0  0  0  0  0  0  0
    4.4025    1.5874    0.0000 C   0  0  0  0  0  0  0  0  0  0  0
    5.9423    2.0848    0.0000 C   0  0  0  0  0  0  0  0  0  0  0
    4.9917    2.3954    0.0000 C   0  0  0  0  0  0  0  0  0  0  0
    3.7321   -0.4779    0.0000 C   0  0  0  0  0  0  0  0  0  0  0
    5.2619   -0.9779    0.0000 C   0  0  0  0  0  0  0  0  0  0  0
    3.7321   -1.4779    0.0000 C   0  0  0  0  0  0  0  0  0  0  0
    2.8660   -1.9779    0.0000 C   0  0  0  0  0  0  0  0  0  0  0
    2.0000   -0.4779    0.0000 C   0  0  0  0  0  0  0  0  0  0  0
    2.3291   -3.2879    0.0000 H   0  0  0  0  0  0  0  0  0  0  0
    3.4030   -3.2879    0.0000 H   0  0  0  0  0  0  0  0  0  0  0
  9  1  1  1
 11  2  1  1
  8  3  1  6
  3 13  1  0
  3 14  1  0
  4 14  2  0
  4 15  1  0
  5 13  2  0
  5 17  1  0
  6 16  1  0
  6 17  2  0
  7 16  1  0
  7 18  1  0
  7 19  1  0
  8  9  1  0
  8 10  1  0
  9 11  1  0
 10 12  1  0
 11 12  1  0
 13 15  1  0
 15 16  2  0
M  END

> <PUBCHEM_BONDANNOTATIONS>
9  1  5
13  15  8
15  16  8
11  2  5
3  13  8
3  14  8
8  3  6
4  14  8
4  15  8
5  13  8
5  17  8
6  16  8
6  17  8

> <StdInChI>
InChI=1S/C10H13N5O2/c11-9-7-10(13-3-12-9)15(4-14-7)5-1-2-6(16)8(5)17/h3-6,8,16-17H,1-2H2,(H2,11,12,13)/t5-,6-,8+/m1/s1

> <StdInChIKey>
CZASVOKHBMDKGF-JKMUOGBPSA-N

> <AuxInfo>
1/1/N:10,12,17,14,8,11,15,9,16,13,7,6,5,4,3,2,1/it:im/rA:30cOONNNNNCCCCCCCCCCHHHHHHHHHHHHH/rB:;;;;;;n3;p1s8;s8;p2s9;s10s11;s3d5;s3d4;s4s13;s6s7d15;s5d6;s8;s9;s10;s10;s11;s12;s12;s1;s14;s2;s17;s7;s7;/rC:6.7485,.4956,0;6.7523,2.6711,0;4.6783,-.1731,0;4.6783,-1.7826,0;2.866,.0221,0;2,-1.4779,0;2.866,-2.9779,0;4.9889,.7774,0;5.9405,1.0848,0;4.4025,1.5874,0;5.9423,2.0848,0;4.9917,2.3954,0;3.7321,-.4779,0;5.2619,-.9779,0;3.7321,-1.4779,0;2.866,-1.9779,0;2,-.4779,0;5.4266,.3382,0;5.8425,.4726,0;3.9425,2.0031,0;3.9411,1.1734,0;5.8463,2.6973,0;5.2449,2.9614,0;4.4553,2.7064,0;7.3154,.7468,0;5.8819,-.9779,0;6.6885,3.2879,0;1.4631,-.1679,0;2.3291,-3.2879,0;3.403,-3.2879,0;

> <Formula>
C10 H13 N5 O2

> <Mw>
235.2425

> <SMILES>
O([H])[C@]1([H])[C@@]([H])(C([H])([H])C([H])([H])[C@@]1([H])N1C([H])=NC2=C(N([H])[H])N=C([H])N=C12)O[H]

> <CSID>
66306

$$$$
