
 OpenBabel11261916372D

 18 19  0  0  0  0  0  0  0  0999 V2000
    2.7026    2.4945    0.0000 O   0  0  0  0  0  0  0  0  0  0  0  0
    3.7195    0.1151    0.0000 O   0  0  0  0  0  0  0  0  0  0  0  0
    5.1753    1.7319    0.0000 O   0  0  0  0  0  0  0  0  0  0  0  0
    5.0820    3.7205    0.0000 O   0  0  0  0  0  0  0  0  0  0  0  0
    0.8660    2.5000    0.0000 O   0  0  0  0  0  0  0  0  0  0  0  0
   -0.8660   -0.5000    0.0000 O   0  0  0  0  0  0  0  0  0  0  0  0
    1.7321    1.0000    0.0000 N   0  0  0  0  0  0  0  0  0  0  0  0
    1.7321   -0.0000    0.0000 N   0  0  0  0  0  0  0  0  0  0  0  0
   -0.0000    1.0000    0.0000 N   0  0  0  0  0  0  0  0  0  0  0  0
    4.1808    1.8364    0.0000 C   0  0  3  0  0  0  0  0  0  0  0  0
    3.5116    1.0933    0.0000 C   0  0  3  0  0  0  0  0  0  0  0  0
    3.6808    2.7024    0.0000 C   0  0  3  0  0  0  0  0  0  0  0  0
    2.5981    1.5000    0.0000 C   0  0  3  0  0  0  0  0  0  0  0  0
    4.0875    3.6160    0.0000 C   0  0  0  0  0  0  0  0  0  0  0  0
    0.8660    1.5000    0.0000 C   0  0  0  0  0  0  0  0  0  0  0  0
    0.8660   -0.5000    0.0000 C   0  0  0  0  0  0  0  0  0  0  0  0
    0.0000   -0.0000    0.0000 C   0  0  0  0  0  0  0  0  0  0  0  0
   -0.8660    1.5000    0.0000 H   0  0  0  0  0  0  0  0  0  0  0  0
  1 12  1  0  0  0  0
  1 13  1  0  0  0  0
  2 11  1  0  0  0  0
  3 10  1  0  0  0  0
  4 14  1  0  0  0  0
  5 15  2  0  0  0  0
  6 17  2  0  0  0  0
  7  8  1  0  0  0  0
  7 13  1  0  0  0  0
  7 15  1  0  0  0  0
  8 16  2  0  0  0  0
  9 15  1  0  0  0  0
  9 17  1  0  0  0  0
  9 18  1  0  0  0  0
 10 11  1  0  0  0  0
 10 12  1  0  0  0  0
 11 13  1  0  0  0  0
 12 14  1  0  0  0  0
 16 17  1  0  0  0  0
M  END
>  <PUBCHEM_BONDANNOTATIONS>
12  14  3
16  17  8
11  2  3
10  3  3
13  7  3
7  15  8
7  8  8
8  16  8
9  15  8
9  17  8

>  <StdInChI>
InChI=1S/C8H11N3O6/c12-2-3-5(14)6(15)7(17-3)11-8(16)10-4(13)1-9-11/h1,3,5-7,12,14-15H,2H2,(H,10,13,16)

>  <StdInChIKey>
WYXSYVWAUAUWLD-UHFFFAOYSA-N

>  <AuxInfo>
1/1/N:16,14,12,17,10,11,13,15,8,9,7,4,6,3,2,5,1/rA:28cOOOOOONNNCCCCCCCCHHHHHHHHHHH/rB:;;;;;;s7;;s3;s2s10;s1s10;s1s7s11;s4s12;d5s7s9;d8;d6s9s16;s11;s10;s12;s13;s14;s14;s2;s3;s4;s9;s16;/rC:5.0298,-1.1307,0;2.4607,-.8216,0;3.133,-2.8907,0;6.3031,-2.7862,0;2.4888,.4571,0;4.2208,3.4571,0;4.2208,.4571,0;5.0868,.9571,0;3.3548,1.9571,0;3.7208,-2.0817,0;3.4118,-1.1307,0;4.7208,-2.0817,0;4.2208,-.5429,0;5.3086,-2.8907,0;3.3548,.9571,0;5.0868,1.9571,0;4.2208,2.4571,0;2.9734,-1.5691,0;3.1085,-1.9847,0;5.3332,-1.9847,0;3.6684,-.2614,0;4.7514,-3.1625,0;5.4795,-3.4867,0;2,-1.2365,0;3.3852,-3.4571,0;6.6676,-3.2878,0;2.8179,2.2671,0;5.6238,2.2671,0;

>  <Formula>
C8 H11 N3 O6

>  <Mw>
245.1894

>  <SMILES>
O1C([H])(C([H])(C([H])(C1([H])C([H])([H])O[H])O[H])O[H])N1C(N([H])C(C([H])=N1)=O)=O

>  <CSID>
203593

$$$$
